/*--------------------------------*- C++ -*----------------------------------*\
| =========                 |                                                 |
| \\      /  F ield         | OpenFOAM: The Open Source CFD Toolbox           |
|  \\    /   O peration     | Version:  6                                     |
|   \\  /    A nd           | Web:      www.OpenFOAM.org                      |
|    \\/     M anipulation  |                                                 |
\*---------------------------------------------------------------------------*/
FoamFile
{
    version     2.0;
    format      ascii;
    class       dictionary;
    object      controlDict;
}
// * * * * * * * * * * * * * * * * * * * * * * * * * * * * * * * * * * * * * //

application     pimpleFoam;

startFrom       latestTime;

startTime       0;

stopAt          endTime;

endTime         30;

deltaT          0.00137;

writeControl    timeStep;

writeInterval   100;

writeFormat     binary;

writePrecision  12;

writeCompression off;

timeFormat      general;

timePrecision   10;

runTimeModifiable false;

adjustTimeStep  false;

libs
(
    "libfloatingTurbinesFoam.so"
);

/*
DebugSwitches
{
    axialFlowTurbineALSource 1;
    actuatorLineSource  1;
    actuatorLineElement 0;
    LeishmanBeddoes 1;
}

*/
functions
{
  //  #include "sampling" //Include sampling definition
    
}

// ************************************************************************* //
